data57.m
busdata=[1 1 1.04 .55 .17 0 0 0 0 0;
   2 3 1.01 .03 .88 0 0 -.17 .5 0;
   3 3 .985 .41 .21 .40 0 -.1 .6 0;
   4 2 1 0 0 0 0 0 0 0;
   5 2 1 .13 .04 0 0 0 0 0;
   6 3 .980 .75 .02 0 0 -.08 .25 0;
   7 2 1 0 0 0 0 0 0 0;
   8 3 1.005 1.5 .22 4.5 0 -1.4 2.0 0;
   9 3 .98 1.21 .26 0 0 -.03 .09 0;
   10 2 1 .05 .02 0 0 0 0 0;
   11 2 1 0 0 0 0 0 0 0;
   12 3 1.015 3.77 .24 3.1 0 -.5 1.55 0;
   13 2 1 .18 .023 0 0 0 0 0;
   14 2 1 .105 .053 0 0 0 0 0;
   15 2 1 .22 .05 0 0 0 0 0;
   16 2 1 .43 .03 0 0 0 0 0;
   17 2 1 .42 .08 0 0 0 0 0;
   18 2 1 .272 .098 0 0 0 0 .1;
   19 2 1 .033 .006 0 0 0 0 0;
   20 2 1 .023 .01 0 0 0 0 0;
   21 2 1 0 0 0 0 0 0 0;
   22 2 1 0 0 0 0 0 0 0;
   23 2 1 .063 .021 0 0 0 0 0;
   24 2 1 0 0 0 0 0 0 0;
   25 2 1 .063 .032 0 0 0 0 .059;
   26 2 1 0 0 0 0 0 0 0;
   27 2 1 .093 .005 0 0 0 0 0;
   28 2 1 .046 .023 0 0 0 0 0;
   29 2 1 .17 .026 0 0 0 0 0;
   30 2 1 .036 .018 0 0 0 0 0;
   31 2 1 .058 .029 0 0 0 0 0;
   32 2 1 .016 .008 0 0 0 0 0;
   33 2 1 .038 .019 0 0 0 0 0;
   34 2 1 0 0 0 0 0 0 0;
   35 2 1 .06 .03 0 0 0 0 0;
   36 2 1 0 0 0 0 0 0 0;
   37 2 1 0 0 0 0 0 0 0;
   38 2 1 .14 .07 0 0 0 0 0;
   39 2 1 0 0 0 0 0 0 0;
   40 2 1 0 0 0 0 0 0 0;
   41 2 1 .063 .03 0 0 0 0 0;
   42 2 1 .071 .04 0 0 0 0 0;
   43 2 1 .02 .01 0 0 0 0 0;
   44 2 1 .12 .018 0 0 0 0 0;
   45 2 1 0 0 0 0 0 0 0;
   46 2 1 0 0 0 0 0 0 0;
   47 2 1 .297 .116 0 0 0 0 0;
   48 2 1 0 0 0 0 0 0 0;
   49 2 1 .18 .085 0 0 0 0 0;
   50 2 1 .21 .105 0 0 0 0 0;
   51 2 1 .18 .053 0 0 0 0 0;
   52 2 1 .049 .022 0 0 0 0 0;
   53 2 1 .20 .10 0 0 0 0 .063;
   54 2 1 .041 .014 0 0 0 0 0;
   55 2 1 .068 .034 0 0 0 0 0;
   56 2 1 .076 .022 0 0 0 0 0;
   57 2 1 .067 .02 0 0 0 0 0];

linedata=[1 1 2 .0083 .0280 .0645 1;
   2 2 3 .0298 .0850 .0409 1;
   3 3 4 .0112 .0366 .0190 1;
   4 4 5 .0625 .1320 .0129 1;
   5 4 6 .0430 .1480 .0174 1;
   6 6 7 .0200 .1020 .0138 1;
   7 6 8 .0339 .1730 .0235 1;
   8 8 9 .0099 .0505 .0274 1;
   9 9 10 .0369 .1679 .0220 1;
   10 9 11 .0258 .0848 .0109 1;
   11 9 12 .0648 .2950 .0386 1;
   12 9 13 .0481 .1580 .0203 1;
   13 13 14 .0132 .0434 .0055 1;
   14 13 15 .0269 .0869 .0115 1;
   15 1 15 .0178 .0910 .0494 1;
   16 1 16 .0454 .2060 .0273 1;
   17 1 17 .0238 .1080 .0143 1;
   18 3 15 .0162 .053 .0272 1;
   19 4 18 0 .555 0 .97;
   20 4 18 0 .43 0 .978;
   21 5 6 .0302 .0641 .0062 1;
   22 7 8 .0139 .0712 .0097 1;
   23 10 12 .0277 .1262 .0164 1;
   24 11 13 .0223 .0732 .0094 1;
   25 12 13 .0178 .0580 .0302 1;
   26 12 16 .0180 .0813 .0108 1;
   27 12 17 .0397 .1790 .0238 1;
   28 14 15 .0171 .0547 .0074 1;
   29 18 19 .461 .6850 0 1;
   30 19 20 .283 .434 0 1;
   31 21 20 0 .7767 0 1.043;
   32 21 22 .0736 .117 0 1;
   33 22 23 .0099 .0152 0 1;
   34 23 24 .166 .256  .0042 1;
   35 24 25 0 1.182 0 1;
   36 24 25 0 1.23 0 1;
   37 24 26 0 .0473 0 1.043;
   38 26 27 .165 .254 0 1;
   39 27 28 .0618 .0954 0 1;
   40 28 29 .0418 .0587 0 1;
   41 07 29 0 .0648 0 .967;
   42 25 30 .135 .202 0 1;
   43 30 31 .326 .497 0 1;
   44 31 32 .507 .755 0 1;
   45 32 33 .0392 .036 0 1;
   46 34 32 0 .953 0 .975;
   47 34 35 .052 .078 .0016 1;
   48 35 36 .043 .0537 .0008 1;
   49 36 37 .029 .0366 0 1;
   50 37 38 .0651 .1009 .001 1;
   51 37 39 .0239 .0379 0 1;
   52 36 40 .03 .0466 0 1;
   53 22 38 .0192 .0295 0 1;
   54 11 41 0 .749 0 .955;
   55 41 42 .207 .352 0 1;
   56 41 43 0 .412 0 1;
   57 38 44 .0289 .0585 .001 1;
   58 15 45 0 .1042 0 .955;
   59 14 46 0 .0735 0 .9;
   60 46 47 .023 .068 .0016 1;
   61 47 48 .0162 .0233 0 1;
   62 48 49 .0834 .129 .0024 1;
   63 49 50 .0801 .128 0 1;
   64 50 51 .1386 .22 0 1;
   65 10 51 0 .0712 0 .93;
   66 13 49 0 .191 0 .895;
   67 29 52 .1442 .187 0 1;
   68 52 53 .0762 .0984 0 1;
   69 53 54 .1878 .232 0 1;
   70 54 55 .1732 .2265 0 1;
   71 11 43 0 .153 0 .958;
   72 44 45 .0624 .1242 .002 1;
   73 40 56 0 1.195 0 .958;
   74 56 41 .553 .549 0 1;
   75 56 42 .2125 .354 0 1;
   76 39 57 0 1.355 0 .98;
   77 57 56 .174 .26 0 1;
   78 38 49 .115 .177 .003 1;
   79 38 48 .0312 .0482 0 1;
   80 9 55 0 .1205 0 .94];
   
%    busdata(:,4)=busdata(:,4)*0.7;
%    busdata(:,5)=busdata(:,5)*0.7;
   